Version 4
SHEET 1 880 680
WIRE 144 -144 144 -272
WIRE 144 -144 48 -144
WIRE 224 -144 144 -144
WIRE 48 -32 48 -144
WIRE 224 -32 224 -144
WIRE 48 192 48 128
WIRE 224 192 224 128
FLAG 48 192 0
FLAG 224 192 0
SYMBOL res 32 -48 R0
SYMATTR InstName R1
SYMATTR Value 200k
SYMATTR SpiceLine tol=5 pwr=0.125
SYMBOL res 208 -48 R0
SYMATTR InstName R2
SYMATTR Value 200k
SYMATTR SpiceLine tol=5 pwr=0.125
SYMBOL voltage 48 32 R0
WINDOW 123 0 0 Left 2
WINDOW 39 24 124 Left 2
SYMATTR SpiceLine Rser=100
SYMATTR InstName V1
SYMATTR Value PULSE(1 1 0 0.01m 0.01m 0 1m 1m)
SYMBOL voltage 224 32 R0
WINDOW 123 0 0 Left 2
WINDOW 39 24 124 Left 2
SYMATTR SpiceLine Rser=100
SYMATTR InstName V2
SYMATTR Value SINE(1 1 5k 0 0 0 0)
TEXT 16 216 Left 2 !.tran 10m startup
